
Opening input/output transcript to file "C:\Users\radie\Desktop\realbifurcationSIM\\fluent-20260202-143351-16756.trn".
Auto-Transcript Start Time:  14:33:51, 02 Feb 2026 E. Australia Standard Time 

              Welcome to ANSYS Fluent 2025 R2.04

              Copyright 1987-2025 ANSYS, Inc. All Rights Reserved.
              Unauthorized use, distribution or duplication is prohibited.
              This product is subject to U.S. laws governing export and re-export.
              For full Legal Notice, see documentation.

Build Time: Oct  7 2025 15:34:38 EDT  Build Id: 10205  
 
Connected License Server List:	1055@localhost

     --------------------------------------------------------------
     This is an academic version of ANSYS FLUENT. Usage of this product
     license is limited to the terms and conditions specified in your ANSYS
     license form, additional terms section.
     --------------------------------------------------------------
Host spawning Node 0 on machine "DESKTOP-BBN4MI6" (win64).

-----------------------------------------------------------------------------------
ID    Hostname         Core  O.S.         PID    Vendor                           
-----------------------------------------------------------------------------------
n3    DESKTOP-BBN4MI6  4/12  Windows-x64  19036  Intel(R) Core(TM) i5-10400F      
n2    DESKTOP-BBN4MI6  3/12  Windows-x64  6984   Intel(R) Core(TM) i5-10400F      
n1    DESKTOP-BBN4MI6  2/12  Windows-x64  18956  Intel(R) Core(TM) i5-10400F      
n0*   DESKTOP-BBN4MI6  1/12  Windows-x64  8196   Intel(R) Core(TM) i5-10400F      
host  DESKTOP-BBN4MI6        Windows-x64  11740  Intel(R) Core(TM) i5-10400F      

MPI Option Selected: intel
Selected system interconnect: default
-----------------------------------------------------------------------------------

Cleanup script file is C:\\Users\\radie\\Desktop\\realbifurcationSIM\\cleanup-fluent-DESKTOP-BBN4MI6-11740.bat

Posting ANSYS Product Improvement Program startup data
Done.

Reading journal file run_coronary_extracted_vessel_Re250.jou...

> ; ===========================================================
; 3D BIFURCATION TEMPLATE (GOLDEN MASTER)
; Validated for ANSYS Fluent 2025 R2 (25.2)
; ===========================================================
/file/set-tui-version "25.2"

> /file/read-case "coronary_extracted_vessel.msh.h5"Fast-loading "C:\PROGRA~1\ANSYSI~1\v252\fluent\fluent25.2.0\\addons\afd\lib\hdfio.bin"
Done.
Multicore SMT processors detected. Processor affinity set!

Reading from DESKTOP-BBN4MI6:"C:\Users\radie\Desktop\realbifurcationSIM\coronary_extracted_vessel.msh.h5" in NODE0 mode ...
  Reading mesh ...
      567668 cells,     1 cell zone  ...
         567668 mixed cells,  zone id: 3115
     1279652 faces,     5 face zones ...
        1220320 mixed interior faces,  zone id: 3117
            267 mixed pressure-outlet faces,  zone id: 22
            709 mixed pressure-outlet faces,  zone id: 21
           1031 mixed velocity-inlet faces,  zone id: 20
          57325 triangular wall faces,  zone id: 19
      211243 nodes,     3 node zones ...

Building...
     mesh
	auto partitioning mesh by Metis (fast),
	distributing mesh
		parts....,
		faces....,
		nodes....,
		cells....,
        bandwidth reduction using Reverse Cuthill-McKee: 141249/1081 = 130.665
  Reading boundary layer flags ...
  Done.

     materials,
     interface,
     domains,
     zones,
	Skipping thread 14 of domain 1 (not referenced by grid).
	Skipping thread 15 of domain 1 (not referenced by grid).
	Skipping thread 16 of domain 1 (not referenced by grid).
	Skipping thread 17 of domain 1 (not referenced by grid).
	Skipping thread 18 of domain 1 (not referenced by grid).
	Skipping thread 11 of domain 1 (not referenced by grid).
	interior--fluid_domain
	outlet_2
	outlet_1
	inlet
	wall-fluid_domain
	fluid_domain
     parallel,
Done.
Mesh is now scaled to meters.


> 
adjoint/                parallel/               server/
define/                 parametric-study/       solve/
display/                plot/                   surface/
exit                    preferences/            turbo-setup/
file/                   print-license-usage     views/
mesh/                   report/

> ; ---------- Models ----------
/define/models/solver/pressure-based yes

> /define/models/viscous/laminar yes

> 
adjoint/                parallel/               server/
define/                 parametric-study/       solve/
display/                plot/                   surface/
exit                    preferences/            turbo-setup/
file/                   print-license-usage     views/
mesh/                   report/

> ; ---------- Materials ----------
/define/materials/copy fluid water-liquid

Material "water-liquid" copied from database: fluent-database.


> /define/boundary-conditions/fluid (fluid_domain)
fluid_domain yes water-liquid
Specify source terms? [no] no
Specify fixed values? [no] no
Frame Motion? [no] no
Use Profile for Reference Frame X-Origin of Rotation-Axis? [no] no
Reference Frame X-Origin of Rotation-Axis (constant or expression) (in [m]) [0] 0
Use Profile for Reference Frame Y-Origin of Rotation-Axis? [no] no
Reference Frame Y-Origin of Rotation-Axis (constant or expression) (in [m]) [0] 0
Use Profile for Reference Frame Z-Origin of Rotation-Axis? [no] no
Reference Frame Z-Origin of Rotation-Axis (constant or expression) (in [m]) [0] 0
Use Profile for Reference Frame X-Component of Rotation-Axis? [no] no
Reference Frame X-Component of Rotation-Axis (constant or expression) [0] 0
Use Profile for Reference Frame Y-Component of Rotation-Axis? [no] no
Reference Frame Y-Component of Rotation-Axis (constant or expression) [0] 0
Use Profile for Reference Frame Z-Component of Rotation-Axis? [no] no
Reference Frame Z-Component of Rotation-Axis (constant or expression) [1] 1
Mesh Motion? [no] no
Enter yes or no to continue [no] no
Porous zone? [no] no
3D Fan Zone? [no] no

> 
adjoint/                parallel/               server/
define/                 parametric-study/       solve/
display/                plot/                   surface/
exit                    preferences/            turbo-setup/
file/                   print-license-usage     views/
mesh/                   report/

> ; ---------- Boundary Conditions ----------
; INLET
/define/boundary-conditions/velocity-inlet (inlet)
inlet
Velocity Specification Method: Magnitude and Direction [no] no
Velocity Specification Method: Components [no] no
Velocity Specification Method: Magnitude, Normal to Boundary [yes] yes
Reference Frame: Absolute [yes] yes
Use Profile for Velocity Magnitude? [no] no
Velocity Magnitude (constant or expression) (in [m/s]) [0] 0.014242039672413855
Use Profile for Supersonic/Initial Gauge Pressure? [no] no
Supersonic/Initial Gauge Pressure (constant or expression) (in [Pa]) [0] 0

> 
adjoint/                parallel/               server/
define/                 parametric-study/       solve/
display/                plot/                   surface/
exit                    preferences/            turbo-setup/
file/                   print-license-usage     views/
mesh/                   report/

> ; OUTLETS
/define/boundary-conditions/pressure-outlet (outlet_1 outlet_2)
outlet_1
Backflow Reference Frame: Absolute [yes] yes
Use Profile for Gauge Pressure? [no] no
Gauge Pressure (constant or expression) (in [Pa]) [0] 0
Backflow Direction Specification Method: Direction Vector [no] no
Backflow Direction Specification Method: Normal to Boundary [yes] yes
Backflow Pressure Specification: Total Pressure [yes] yes
Radial Equilibrium Pressure Distribution [no] no
Average Pressure Specification? [no] no
Specify targeted mass flow rate [no] no

> 
adjoint/                parallel/               server/
define/                 parametric-study/       solve/
display/                plot/                   surface/
exit                    preferences/            turbo-setup/
file/                   print-license-usage     views/
mesh/                   report/

> /define/boundary-conditions/pressure-outlet (outlet_1 outlet_2)
outlet_2
Backflow Reference Frame: Absolute [yes] yes
Use Profile for Gauge Pressure? [no] no
Gauge Pressure (constant or expression) (in [Pa]) [0] 0
Backflow Direction Specification Method: Direction Vector [no] no
Backflow Direction Specification Method: Normal to Boundary [yes] yes
Backflow Pressure Specification: Total Pressure [yes] yes
Radial Equilibrium Pressure Distribution [no] no
Average Pressure Specification? [no] no
Specify targeted mass flow rate [no] no

> 
adjoint/                parallel/               server/
define/                 parametric-study/       solve/
display/                plot/                   surface/
exit                    preferences/            turbo-setup/
file/                   print-license-usage     views/
mesh/                   report/

> ; WALLS
/define/boundary-conditions/wall (wall-fluid_domain)
wall-fluid_domain
Wall Motion [motion-bc-stationary]: Change current value? [no] no
Shear Boundary Condition [shear-bc-noslip]: Change current value? [no] no

> 
adjoint/                parallel/               server/
define/                 parametric-study/       solve/
display/                plot/                   surface/
exit                    preferences/            turbo-setup/
file/                   print-license-usage     views/
mesh/                   report/

> ; ---------- Solution Methods ----------
/solve/set/p-v-coupling 24

> /solve/set/discretization-scheme/pressure 12

> /solve/set/discretization-scheme/mom 4

> 
adjoint/                parallel/               server/
define/                 parametric-study/       solve/
display/                plot/                   surface/
exit                    preferences/            turbo-setup/
file/                   print-license-usage     views/
mesh/                   report/

> ; ---------- Solution Controls ----------
/solve/monitors/residual/convergence-criteria 1e-3 1e-4 1e-4 1e-4

> /solve/monitors/residual/print? yes

> 
adjoint/                parallel/               server/
define/                 parametric-study/       solve/
display/                plot/                   surface/
exit                    preferences/            turbo-setup/
file/                   print-license-usage     views/
mesh/                   report/

> ; ---------- Initialization ----------
/solve/initialize/compute-defaults/velocity-inlet (inlet)
inlet

> /solve/initialize/initialize-flow

> 
adjoint/                parallel/               server/
define/                 parametric-study/       solve/
display/                plot/                   surface/
exit                    preferences/            turbo-setup/
file/                   print-license-usage     views/
mesh/                   report/

> ; ---------- Solve ----------
/solve/iterate 1000

  iter  continuity  x-velocity  y-velocity  z-velocity     time/iter

 Reversed flow on 709 faces (100.0% area) of pressure-outlet 21.
     1  1.0000e+00  1.3871e-02  1.7758e-02  4.3896e-03  0:47:11  999

 Reversed flow on 139 faces (6.2% area) of pressure-outlet 21.
     2  7.1961e-01  1.3035e-02  1.6912e-02  5.1118e-03  0:43:24  998

 Reversed flow on 355 faces (21.4% area) of pressure-outlet 21.
     3  3.7176e-01  5.4407e-03  6.4695e-03  3.1401e-03  0:39:28  997

 Reversed flow on 301 faces (16.5% area) of pressure-outlet 21.
     4  2.4322e-01  2.7676e-03  3.0978e-03  2.0208e-03  0:36:02  996

 Reversed flow on 216 faces (10.8% area) of pressure-outlet 21.
     5  1.7565e-01  1.4755e-03  1.5717e-03  1.3004e-03  0:33:26  995

 Reversed flow on 168 faces (7.9% area) of pressure-outlet 21.
     6  1.3665e-01  8.5372e-04  8.6891e-04  8.7687e-04  0:32:49  994

 Reversed flow on 129 faces (5.7% area) of pressure-outlet 21.
     7  1.0841e-01  5.3458e-04  5.2699e-04  6.1156e-04  0:31:17  993

 Reversed flow on 103 faces (4.6% area) of pressure-outlet 21.
     8  8.3704e-02  3.5821e-04  3.4212e-04  4.4042e-04  0:30:47  992

 Reversed flow on 70 faces (3.2% area) of pressure-outlet 21.
     9  6.5136e-02  2.5475e-04  2.3769e-04  3.2869e-04  0:30:05  991

 Reversed flow on 58 faces (2.6% area) of pressure-outlet 21.
    10  5.0237e-02  1.8736e-04  1.7269e-04  2.4770e-04  0:29:26  990

 Reversed flow on 43 faces (1.8% area) of pressure-outlet 21.
    11  3.8406e-02  1.4057e-04  1.2883e-04  1.8680e-04  0:31:12  989

 Reversed flow on 30 faces (1.2% area) of pressure-outlet 21.

  iter  continuity  x-velocity  y-velocity  z-velocity     time/iter
    12  2.9179e-02  1.0843e-04  1.0018e-04  1.4631e-04  0:30:25  988

 Reversed flow on 20 faces (0.9% area) of pressure-outlet 21.
    13  2.1926e-02  8.0169e-05  7.1612e-05  1.0665e-04  0:29:53  987

 Reversed flow on 13 faces (0.5% area) of pressure-outlet 21.
    14  1.6668e-02  6.1304e-05  5.4411e-05  8.1797e-05  0:30:39  986

 Reversed flow on 9 faces (0.3% area) of pressure-outlet 21.
    15  1.3060e-02  4.9172e-05  4.3295e-05  6.5522e-05  0:30:02  985

 Reversed flow on 6 faces (0.1% area) of pressure-outlet 21.
    16  1.0111e-02  3.8372e-05  3.3323e-05  5.0975e-05  0:29:34  984

 Reversed flow on 6 faces (0.1% area) of pressure-outlet 21.
    17  7.9081e-03  3.0458e-05  2.6251e-05  4.0123e-05  0:29:12  983

 Reversed flow on 6 faces (0.1% area) of pressure-outlet 21.
    18  6.2487e-03  2.4407e-05  2.0899e-05  3.1919e-05  0:29:00  982

 Reversed flow on 4 faces (0.1% area) of pressure-outlet 21.
    19  4.9343e-03  1.9479e-05  1.6578e-05  2.5218e-05  0:28:47  981

 Reversed flow on 4 faces (0.1% area) of pressure-outlet 21.
    20  3.8943e-03  1.5491e-05  1.3121e-05  1.9793e-05  0:27:21  980

 Reversed flow on 4 faces (0.1% area) of pressure-outlet 21.
    21  3.0394e-03  1.2170e-05  1.0238e-05  1.5378e-05  0:26:12  979

 Reversed flow on 3 faces (0.1% area) of pressure-outlet 21.
    22  2.3885e-03  9.6684e-06  8.0369e-06  1.2042e-05  0:25:16  978

 Reversed flow on 3 faces (0.1% area) of pressure-outlet 21.

  iter  continuity  x-velocity  y-velocity  z-velocity     time/iter
    23  1.8895e-03  7.6907e-06  6.3280e-06  9.5226e-06  0:25:43  977

 Reversed flow on 1 face (0.0% area) of pressure-outlet 21.
    24  1.5254e-03  6.2409e-06  5.0702e-06  7.6775e-06  0:26:09  976
    25  1.2332e-03  5.0528e-06  4.0501e-06  6.1880e-06  0:26:18  975
    26  1.0032e-03  4.1252e-06  3.2386e-06  5.0111e-06  0:26:18  974
    27  8.2232e-04  3.3858e-06  2.6302e-06  4.1118e-06  0:26:20  973
!   27 solution is converged

> 
adjoint/                parallel/               server/
define/                 parametric-study/       solve/
display/                plot/                   surface/
exit                    preferences/            turbo-setup/
file/                   print-license-usage     views/
mesh/                   report/

> ; ===========================================================
; DATA EXPORT (batch mode auto-overwrites)
; ===========================================================

adjoint/                parallel/               server/
define/                 parametric-study/       solve/
display/                plot/                   surface/
exit                    preferences/            turbo-setup/
file/                   print-license-usage     views/
mesh/                   report/

> ; Create surface from interior zone for export
/surface/zone-surface interior-data fluid_domain

> 
adjoint/                parallel/               server/
define/                 parametric-study/       solve/
display/                plot/                   surface/
exit                    preferences/            turbo-setup/
file/                   print-license-usage     views/
mesh/                   report/

> ; Save case and data
/file/write-case-data "results/coronary_extracted_vessel/Re250/bifurcation_Re250.cas.h5"
Writing to DESKTOP-BBN4MI6:"C:\Users\radie\Desktop\realbifurcationSIM\results/coronary_extracted_vessel/Re250/bifurcation_Re250.cas.h5" in NODE0 mode and compression level 1 ...
Grouping cells for Laplace smoothing ...
  Done.      567668 cells,     1 zone  ...
     1279652 faces,     5 zones ...
      211243 nodes,     1 zone  ...
  Done.

  Writing boundary layer flags ...
  Done.
Done.

Writing to DESKTOP-BBN4MI6:"C:\Users\radie\Desktop\realbifurcationSIM\results/coronary_extracted_vessel/Re250/bifurcation_Re250.dat.h5" in NODE0 mode and compression level 1 ...
  Writing results.
Done.


> yes


Overwrite confirmations (/file/set-batch-options ...)
are on -- will therefore ignore the following journal
Error: invalid command: yes


> 
adjoint/                parallel/               server/
define/                 parametric-study/       solve/
display/                plot/                   surface/
exit                    preferences/            turbo-setup/
file/                   print-license-usage     views/
mesh/                   report/

> ; Export interior field data
/file/export/ascii "results/coronary_extracted_vessel/Re250/interior_full_Re250.csv" interior-data () no x-coordinate y-coordinate z-coordinate pressure x-velocity y-velocity z-velocity velocity-magnitude ()

Location/Cell-Centered?,
if Cell-Centered not chosen, node values of scalars are reported [no] no

Writing "results/coronary_extracted_vessel/Re250/interior_full_Re250.csv"...

Writing information to ascii file ...
Done.


> yes


Overwrite confirmations (/file/set-batch-options ...)
are on -- will therefore ignore the following journal
Error: invalid command: yes


> 
adjoint/                parallel/               server/
define/                 parametric-study/       solve/
display/                plot/                   surface/
exit                    preferences/            turbo-setup/
file/                   print-license-usage     views/
mesh/                   report/

> ; Export wall data
/file/export/ascii "results/coronary_extracted_vessel/Re250/wall_data_Re250.csv" wall-fluid_domain () no x-coordinate y-coordinate z-coordinate pressure wall-shear x-wall-shear y-wall-shear z-wall-shear ()

Location/Cell-Centered?,
if Cell-Centered not chosen, node values of scalars are reported [no] no

Writing "results/coronary_extracted_vessel/Re250/wall_data_Re250.csv"...

Writing information to ascii file ...
Done.


> yes


Overwrite confirmations (/file/set-batch-options ...)
are on -- will therefore ignore the following journal
Error: invalid command: yes


> 
adjoint/                parallel/               server/
define/                 parametric-study/       solve/
display/                plot/                   surface/
exit                    preferences/            turbo-setup/
file/                   print-license-usage     views/
mesh/                   report/

> ; Export outlet data
/file/export/ascii "results/coronary_extracted_vessel/Re250/outlets_Re250.csv" outlet_1 outlet_2 () no x-coordinate y-coordinate z-coordinate pressure velocity-magnitude ()

Location/Cell-Centered?,
if Cell-Centered not chosen, node values of scalars are reported [no] no

Writing "results/coronary_extracted_vessel/Re250/outlets_Re250.csv"...

Writing information to ascii file ...
Done.


> yes


Overwrite confirmations (/file/set-batch-options ...)
are on -- will therefore ignore the following journal
Error: invalid command: yes


> 
adjoint/                parallel/               server/
define/                 parametric-study/       solve/
display/                plot/                   surface/
exit                    preferences/            turbo-setup/
file/                   print-license-usage     views/
mesh/                   report/

> /exit yes

Posting ANSYS Product Improvement Program performance data 
Done.
Auto-Transcript Stop Time:  14:35:20, 02 Feb 2026 E. Australia Standard Time 
Total Transcript Time: 1 Minute 29 Second.

Automatic transcript closed.
