
Opening input/output transcript to file "C:\Users\radie\Desktop\realbifurcationSIM\\fluent-20260202-142120-19348.trn".
Auto-Transcript Start Time:  14:21:20, 02 Feb 2026 E. Australia Standard Time 

              Welcome to ANSYS Fluent 2025 R2.04

              Copyright 1987-2025 ANSYS, Inc. All Rights Reserved.
              Unauthorized use, distribution or duplication is prohibited.
              This product is subject to U.S. laws governing export and re-export.
              For full Legal Notice, see documentation.

Build Time: Oct  7 2025 15:34:38 EDT  Build Id: 10205  
 
Connected License Server List:	1055@localhost

     --------------------------------------------------------------
     This is an academic version of ANSYS FLUENT. Usage of this product
     license is limited to the terms and conditions specified in your ANSYS
     license form, additional terms section.
     --------------------------------------------------------------
Host spawning Node 0 on machine "DESKTOP-BBN4MI6" (win64).

-----------------------------------------------------------------------------------
ID    Hostname         Core  O.S.         PID    Vendor                           
-----------------------------------------------------------------------------------
n3    DESKTOP-BBN4MI6  4/12  Windows-x64  17232  Intel(R) Core(TM) i5-10400F      
n2    DESKTOP-BBN4MI6  3/12  Windows-x64  16900  Intel(R) Core(TM) i5-10400F      
n1    DESKTOP-BBN4MI6  2/12  Windows-x64  12348  Intel(R) Core(TM) i5-10400F      
n0*   DESKTOP-BBN4MI6  1/12  Windows-x64  4424   Intel(R) Core(TM) i5-10400F      
host  DESKTOP-BBN4MI6        Windows-x64  17840  Intel(R) Core(TM) i5-10400F      

MPI Option Selected: intel
Selected system interconnect: default
-----------------------------------------------------------------------------------

Cleanup script file is C:\\Users\\radie\\Desktop\\realbifurcationSIM\\cleanup-fluent-DESKTOP-BBN4MI6-17840.bat

Posting ANSYS Product Improvement Program startup data
Done.

Reading journal file run_coronary_extracted_vessel_Re50.jou...

> ; ===========================================================
; 3D BIFURCATION TEMPLATE (GOLDEN MASTER)
; Validated for ANSYS Fluent 2025 R2 (25.2)
; ===========================================================
/file/set-tui-version "25.2"

> /file/read-case "coronary_extracted_vessel.msh.h5"Fast-loading "C:\PROGRA~1\ANSYSI~1\v252\fluent\fluent25.2.0\\addons\afd\lib\hdfio.bin"
Done.
Multicore SMT processors detected. Processor affinity set!

Reading from DESKTOP-BBN4MI6:"C:\Users\radie\Desktop\realbifurcationSIM\coronary_extracted_vessel.msh.h5" in NODE0 mode ...
  Reading mesh ...
      567668 cells,     1 cell zone  ...
         567668 mixed cells,  zone id: 3115
     1279652 faces,     5 face zones ...
        1220320 mixed interior faces,  zone id: 3117
            267 mixed pressure-outlet faces,  zone id: 22
            709 mixed pressure-outlet faces,  zone id: 21
           1031 mixed velocity-inlet faces,  zone id: 20
          57325 triangular wall faces,  zone id: 19
      211243 nodes,     3 node zones ...

Building...
     mesh
	auto partitioning mesh by Metis (fast),
	distributing mesh
		parts....,
		faces....,
		nodes....,
		cells....,
        bandwidth reduction using Reverse Cuthill-McKee: 141249/1081 = 130.665
  Reading boundary layer flags ...
  Done.

     materials,
     interface,
     domains,
     zones,
	Skipping thread 14 of domain 1 (not referenced by grid).
	Skipping thread 15 of domain 1 (not referenced by grid).
	Skipping thread 16 of domain 1 (not referenced by grid).
	Skipping thread 17 of domain 1 (not referenced by grid).
	Skipping thread 18 of domain 1 (not referenced by grid).
	Skipping thread 11 of domain 1 (not referenced by grid).
	interior--fluid_domain
	outlet_2
	outlet_1
	inlet
	wall-fluid_domain
	fluid_domain
     parallel,
Done.
Mesh is now scaled to meters.


> 
adjoint/                parallel/               server/
define/                 parametric-study/       solve/
display/                plot/                   surface/
exit                    preferences/            turbo-setup/
file/                   print-license-usage     views/
mesh/                   report/

> ; ---------- Models ----------
/define/models/solver/pressure-based yes

> /define/models/viscous/laminar yes

> 
adjoint/                parallel/               server/
define/                 parametric-study/       solve/
display/                plot/                   surface/
exit                    preferences/            turbo-setup/
file/                   print-license-usage     views/
mesh/                   report/

> ; ---------- Materials ----------
/define/materials/copy fluid water-liquid

Material "water-liquid" copied from database: fluent-database.


> /define/boundary-conditions/fluid (fluid_domain)
fluid_domain yes water-liquid
Specify source terms? [no] no
Specify fixed values? [no] no
Frame Motion? [no] no
Use Profile for Reference Frame X-Origin of Rotation-Axis? [no] no
Reference Frame X-Origin of Rotation-Axis (constant or expression) (in [m]) [0] 0
Use Profile for Reference Frame Y-Origin of Rotation-Axis? [no] no
Reference Frame Y-Origin of Rotation-Axis (constant or expression) (in [m]) [0] 0
Use Profile for Reference Frame Z-Origin of Rotation-Axis? [no] no
Reference Frame Z-Origin of Rotation-Axis (constant or expression) (in [m]) [0] 0
Use Profile for Reference Frame X-Component of Rotation-Axis? [no] no
Reference Frame X-Component of Rotation-Axis (constant or expression) [0] 0
Use Profile for Reference Frame Y-Component of Rotation-Axis? [no] no
Reference Frame Y-Component of Rotation-Axis (constant or expression) [0] 0
Use Profile for Reference Frame Z-Component of Rotation-Axis? [no] no
Reference Frame Z-Component of Rotation-Axis (constant or expression) [1] 1
Mesh Motion? [no] no
Enter yes or no to continue [no] no
Porous zone? [no] no
3D Fan Zone? [no] no

> 
adjoint/                parallel/               server/
define/                 parametric-study/       solve/
display/                plot/                   surface/
exit                    preferences/            turbo-setup/
file/                   print-license-usage     views/
mesh/                   report/

> ; ---------- Boundary Conditions ----------
; INLET
/define/boundary-conditions/velocity-inlet (inlet)
inlet
Velocity Specification Method: Magnitude and Direction [no] no
Velocity Specification Method: Components [no] no
Velocity Specification Method: Magnitude, Normal to Boundary [yes] yes
Reference Frame: Absolute [yes] yes
Use Profile for Velocity Magnitude? [no] no
Velocity Magnitude (constant or expression) (in [m/s]) [0] 0.002848407934482771
Use Profile for Supersonic/Initial Gauge Pressure? [no] no
Supersonic/Initial Gauge Pressure (constant or expression) (in [Pa]) [0] 0

> 
adjoint/                parallel/               server/
define/                 parametric-study/       solve/
display/                plot/                   surface/
exit                    preferences/            turbo-setup/
file/                   print-license-usage     views/
mesh/                   report/

> ; OUTLETS
/define/boundary-conditions/pressure-outlet (outlet_1 outlet_2)
outlet_1
Backflow Reference Frame: Absolute [yes] yes
Use Profile for Gauge Pressure? [no] no
Gauge Pressure (constant or expression) (in [Pa]) [0] 0
Backflow Direction Specification Method: Direction Vector [no] no
Backflow Direction Specification Method: Normal to Boundary [yes] yes
Backflow Pressure Specification: Total Pressure [yes] yes
Radial Equilibrium Pressure Distribution [no] no
Average Pressure Specification? [no] no
Specify targeted mass flow rate [no] no

> 
adjoint/                parallel/               server/
define/                 parametric-study/       solve/
display/                plot/                   surface/
exit                    preferences/            turbo-setup/
file/                   print-license-usage     views/
mesh/                   report/

> /define/boundary-conditions/pressure-outlet (outlet_1 outlet_2)
outlet_2
Backflow Reference Frame: Absolute [yes] yes
Use Profile for Gauge Pressure? [no] no
Gauge Pressure (constant or expression) (in [Pa]) [0] 0
Backflow Direction Specification Method: Direction Vector [no] no
Backflow Direction Specification Method: Normal to Boundary [yes] yes
Backflow Pressure Specification: Total Pressure [yes] yes
Radial Equilibrium Pressure Distribution [no] no
Average Pressure Specification? [no] no
Specify targeted mass flow rate [no] no

> 
adjoint/                parallel/               server/
define/                 parametric-study/       solve/
display/                plot/                   surface/
exit                    preferences/            turbo-setup/
file/                   print-license-usage     views/
mesh/                   report/

> ; WALLS
/define/boundary-conditions/wall (wall-fluid_domain)
wall-fluid_domain
Wall Motion [motion-bc-stationary]: Change current value? [no] no
Shear Boundary Condition [shear-bc-noslip]: Change current value? [no] no

> 
adjoint/                parallel/               server/
define/                 parametric-study/       solve/
display/                plot/                   surface/
exit                    preferences/            turbo-setup/
file/                   print-license-usage     views/
mesh/                   report/

> ; ---------- Solution Methods ----------
/solve/set/p-v-coupling 24

> /solve/set/discretization-scheme/pressure 12

> /solve/set/discretization-scheme/mom 4

> 
adjoint/                parallel/               server/
define/                 parametric-study/       solve/
display/                plot/                   surface/
exit                    preferences/            turbo-setup/
file/                   print-license-usage     views/
mesh/                   report/

> ; ---------- Solution Controls ----------
/solve/monitors/residual/convergence-criteria 1e-3 1e-4 1e-4 1e-4

> /solve/monitors/residual/print? yes

> 
adjoint/                parallel/               server/
define/                 parametric-study/       solve/
display/                plot/                   surface/
exit                    preferences/            turbo-setup/
file/                   print-license-usage     views/
mesh/                   report/

> ; ---------- Initialization ----------
/solve/initialize/compute-defaults/velocity-inlet (inlet)
inlet

> /solve/initialize/initialize-flow

> 
adjoint/                parallel/               server/
define/                 parametric-study/       solve/
display/                plot/                   surface/
exit                    preferences/            turbo-setup/
file/                   print-license-usage     views/
mesh/                   report/

> ; ---------- Solve ----------
/solve/iterate 1000

  iter  continuity  x-velocity  y-velocity  z-velocity     time/iter

 Reversed flow on 709 faces (100.0% area) of pressure-outlet 21.
     1  1.0000e+00  1.6520e-02  2.1149e-02  5.2279e-03  0:44:26  999

 Reversed flow on 159 faces (7.8% area) of pressure-outlet 21.
     2  7.1768e-01  1.4545e-02  1.8828e-02  5.3611e-03  0:41:16  998

 Reversed flow on 4 faces (1.0% area) of pressure-outlet 22.

 Reversed flow on 433 faces (29.4% area) of pressure-outlet 21.
     3  3.7137e-01  6.8444e-03  8.2316e-03  3.3951e-03  0:38:55  997

 Reversed flow on 433 faces (29.6% area) of pressure-outlet 21.
     4  2.3841e-01  3.3653e-03  3.8636e-03  2.0625e-03  0:35:32  996

 Reversed flow on 387 faces (25.1% area) of pressure-outlet 21.
     5  1.6717e-01  1.7197e-03  1.9040e-03  1.2467e-03  0:32:49  995

 Reversed flow on 255 faces (15.3% area) of pressure-outlet 21.
     6  1.2722e-01  9.2327e-04  9.9478e-04  7.8046e-04  0:31:48  994

 Reversed flow on 193 faces (10.8% area) of pressure-outlet 21.
     7  9.8365e-02  5.2577e-04  5.5576e-04  5.0813e-04  0:29:48  993

 Reversed flow on 160 faces (8.7% area) of pressure-outlet 21.
     8  7.3924e-02  3.1745e-04  3.2734e-04  3.3735e-04  0:28:14  992

 Reversed flow on 121 faces (6.6% area) of pressure-outlet 21.
     9  5.4975e-02  2.0141e-04  2.0522e-04  2.2725e-04  0:26:56  991

 Reversed flow on 91 faces (5.0% area) of pressure-outlet 21.
    10  4.0568e-02  1.3293e-04  1.3469e-04  1.5423e-04  0:25:55  990

 Reversed flow on 74 faces (3.7% area) of pressure-outlet 21.
    11  2.9636e-02  9.0104e-05  9.0838e-05  1.0327e-04  0:32:55  989

 Reversed flow on 57 faces (2.8% area) of pressure-outlet 21.

  iter  continuity  x-velocity  y-velocity  z-velocity     time/iter
    12  2.0684e-02  6.2087e-05  6.4444e-05  7.4496e-05  0:31:50  988

 Reversed flow on 38 faces (1.7% area) of pressure-outlet 21.
    13  1.4729e-02  4.1555e-05  4.2688e-05  5.0075e-05  0:37:39  987

 Reversed flow on 25 faces (1.1% area) of pressure-outlet 21.
    14  1.0529e-02  3.0271e-05  3.0926e-05  3.7364e-05  0:34:28  986

 Reversed flow on 21 faces (0.9% area) of pressure-outlet 21.
    15  7.4181e-03  2.0865e-05  2.1332e-05  2.5395e-05  0:31:56  985

 Reversed flow on 19 faces (0.9% area) of pressure-outlet 21.
    16  5.2730e-03  1.4907e-05  1.5336e-05  1.7340e-05  0:32:17  984

 Reversed flow on 16 faces (0.6% area) of pressure-outlet 21.
    17  3.8401e-03  1.1391e-05  1.1698e-05  1.3130e-05  0:31:18  983

 Reversed flow on 12 faces (0.5% area) of pressure-outlet 21.
    18  2.8319e-03  8.7468e-06  8.9477e-06  1.0030e-05  0:30:30  982

 Reversed flow on 6 faces (0.1% area) of pressure-outlet 21.
    19  2.0981e-03  6.8689e-06  7.0688e-06  7.6551e-06  0:29:56  981

 Reversed flow on 6 faces (0.1% area) of pressure-outlet 21.
    20  1.5696e-03  5.5359e-06  5.7858e-06  5.8852e-06  0:29:25  980

 Reversed flow on 4 faces (0.1% area) of pressure-outlet 21.
    21  1.2018e-03  4.5100e-06  4.7455e-06  4.6246e-06  0:28:59  979

 Reversed flow on 4 faces (0.1% area) of pressure-outlet 21.
    22  9.2912e-04  3.7594e-06  3.9210e-06  3.6623e-06  0:28:41  978
!   22 solution is converged

> 
adjoint/                parallel/               server/
define/                 parametric-study/       solve/
display/                plot/                   surface/
exit                    preferences/            turbo-setup/
file/                   print-license-usage     views/
mesh/                   report/

> ; ===========================================================
; DATA EXPORT (batch mode auto-overwrites)
; ===========================================================

adjoint/                parallel/               server/
define/                 parametric-study/       solve/
display/                plot/                   surface/
exit                    preferences/            turbo-setup/
file/                   print-license-usage     views/
mesh/                   report/

> ; Create surface from interior zone for export
/surface/zone-surface interior-data fluid_domain

> 
adjoint/                parallel/               server/
define/                 parametric-study/       solve/
display/                plot/                   surface/
exit                    preferences/            turbo-setup/
file/                   print-license-usage     views/
mesh/                   report/

> ; Save case and data
/file/write-case-data "results/coronary_extracted_vessel/Re50/bifurcation_Re50.cas.h5"
Writing to DESKTOP-BBN4MI6:"C:\Users\radie\Desktop\realbifurcationSIM\results/coronary_extracted_vessel/Re50/bifurcation_Re50.cas.h5" in NODE0 mode and compression level 1 ...
Grouping cells for Laplace smoothing ...
  Done.      567668 cells,     1 zone  ...
     1279652 faces,     5 zones ...
      211243 nodes,     1 zone  ...
  Done.

  Writing boundary layer flags ...
  Done.
Done.

Writing to DESKTOP-BBN4MI6:"C:\Users\radie\Desktop\realbifurcationSIM\results/coronary_extracted_vessel/Re50/bifurcation_Re50.dat.h5" in NODE0 mode and compression level 1 ...
  Writing results.
Done.


> yes


Overwrite confirmations (/file/set-batch-options ...)
are on -- will therefore ignore the following journal
Error: invalid command: yes


> 
adjoint/                parallel/               server/
define/                 parametric-study/       solve/
display/                plot/                   surface/
exit                    preferences/            turbo-setup/
file/                   print-license-usage     views/
mesh/                   report/

> ; Export interior field data
/file/export/ascii "results/coronary_extracted_vessel/Re50/interior_full_Re50.csv" interior-data () no x-coordinate y-coordinate z-coordinate pressure x-velocity y-velocity z-velocity velocity-magnitude ()

Location/Cell-Centered?,
if Cell-Centered not chosen, node values of scalars are reported [no] no

Writing "results/coronary_extracted_vessel/Re50/interior_full_Re50.csv"...

Writing information to ascii file ...
Done.


> yes


Overwrite confirmations (/file/set-batch-options ...)
are on -- will therefore ignore the following journal
Error: invalid command: yes


> 
adjoint/                parallel/               server/
define/                 parametric-study/       solve/
display/                plot/                   surface/
exit                    preferences/            turbo-setup/
file/                   print-license-usage     views/
mesh/                   report/

> ; Export wall data
/file/export/ascii "results/coronary_extracted_vessel/Re50/wall_data_Re50.csv" wall-fluid_domain () no x-coordinate y-coordinate z-coordinate pressure wall-shear x-wall-shear y-wall-shear z-wall-shear ()

Location/Cell-Centered?,
if Cell-Centered not chosen, node values of scalars are reported [no] no

Writing "results/coronary_extracted_vessel/Re50/wall_data_Re50.csv"...

Writing information to ascii file ...
Done.


> yes


Overwrite confirmations (/file/set-batch-options ...)
are on -- will therefore ignore the following journal
Error: invalid command: yes


> 
adjoint/                parallel/               server/
define/                 parametric-study/       solve/
display/                plot/                   surface/
exit                    preferences/            turbo-setup/
file/                   print-license-usage     views/
mesh/                   report/

> ; Export outlet data
/file/export/ascii "results/coronary_extracted_vessel/Re50/outlets_Re50.csv" outlet_1 outlet_2 () no x-coordinate y-coordinate z-coordinate pressure velocity-magnitude ()

Location/Cell-Centered?,
if Cell-Centered not chosen, node values of scalars are reported [no] no

Writing "results/coronary_extracted_vessel/Re50/outlets_Re50.csv"...

Writing information to ascii file ...
Done.


> yes


Overwrite confirmations (/file/set-batch-options ...)
are on -- will therefore ignore the following journal
Error: invalid command: yes


> 
adjoint/                parallel/               server/
define/                 parametric-study/       solve/
display/                plot/                   surface/
exit                    preferences/            turbo-setup/
file/                   print-license-usage     views/
mesh/                   report/

> /exit yes

Posting ANSYS Product Improvement Program performance data 
Done.
Auto-Transcript Stop Time:  14:22:43, 02 Feb 2026 E. Australia Standard Time 
Total Transcript Time: 1 Minute 23 Second.

Automatic transcript closed.
