
Opening input/output transcript to file "C:\Users\radie\Desktop\realbifurcationSIM\\fluent-20260202-144743-19200.trn".
Auto-Transcript Start Time:  14:47:43, 02 Feb 2026 E. Australia Standard Time 

              Welcome to ANSYS Fluent 2025 R2.04

              Copyright 1987-2025 ANSYS, Inc. All Rights Reserved.
              Unauthorized use, distribution or duplication is prohibited.
              This product is subject to U.S. laws governing export and re-export.
              For full Legal Notice, see documentation.

Build Time: Oct  7 2025 15:34:38 EDT  Build Id: 10205  
 
Connected License Server List:	1055@localhost

     --------------------------------------------------------------
     This is an academic version of ANSYS FLUENT. Usage of this product
     license is limited to the terms and conditions specified in your ANSYS
     license form, additional terms section.
     --------------------------------------------------------------
Host spawning Node 0 on machine "DESKTOP-BBN4MI6" (win64).

-----------------------------------------------------------------------------------
ID    Hostname         Core  O.S.         PID    Vendor                           
-----------------------------------------------------------------------------------
n3    DESKTOP-BBN4MI6  4/12  Windows-x64  17984  Intel(R) Core(TM) i5-10400F      
n2    DESKTOP-BBN4MI6  3/12  Windows-x64  4660   Intel(R) Core(TM) i5-10400F      
n1    DESKTOP-BBN4MI6  2/12  Windows-x64  16428  Intel(R) Core(TM) i5-10400F      
n0*   DESKTOP-BBN4MI6  1/12  Windows-x64  9308   Intel(R) Core(TM) i5-10400F      
host  DESKTOP-BBN4MI6        Windows-x64  10676  Intel(R) Core(TM) i5-10400F      

MPI Option Selected: intel
Selected system interconnect: default
-----------------------------------------------------------------------------------

Cleanup script file is C:\\Users\\radie\\Desktop\\realbifurcationSIM\\cleanup-fluent-DESKTOP-BBN4MI6-10676.bat

Posting ANSYS Product Improvement Program startup data
Done.

Reading journal file run_coronary_extracted_vessel_Re700.jou...

> ; ===========================================================
; 3D BIFURCATION TEMPLATE (GOLDEN MASTER)
; Validated for ANSYS Fluent 2025 R2 (25.2)
; ===========================================================
/file/set-tui-version "25.2"

> /file/read-case "coronary_extracted_vessel.msh.h5"Fast-loading "C:\PROGRA~1\ANSYSI~1\v252\fluent\fluent25.2.0\\addons\afd\lib\hdfio.bin"
Done.
Multicore SMT processors detected. Processor affinity set!

Reading from DESKTOP-BBN4MI6:"C:\Users\radie\Desktop\realbifurcationSIM\coronary_extracted_vessel.msh.h5" in NODE0 mode ...
  Reading mesh ...
      567668 cells,     1 cell zone  ...
         567668 mixed cells,  zone id: 3115
     1279652 faces,     5 face zones ...
        1220320 mixed interior faces,  zone id: 3117
            267 mixed pressure-outlet faces,  zone id: 22
            709 mixed pressure-outlet faces,  zone id: 21
           1031 mixed velocity-inlet faces,  zone id: 20
          57325 triangular wall faces,  zone id: 19
      211243 nodes,     3 node zones ...

Building...
     mesh
	auto partitioning mesh by Metis (fast),
	distributing mesh
		parts....,
		faces....,
		nodes....,
		cells....,
        bandwidth reduction using Reverse Cuthill-McKee: 141249/1081 = 130.665
  Reading boundary layer flags ...
  Done.

     materials,
     interface,
     domains,
     zones,
	Skipping thread 14 of domain 1 (not referenced by grid).
	Skipping thread 15 of domain 1 (not referenced by grid).
	Skipping thread 16 of domain 1 (not referenced by grid).
	Skipping thread 17 of domain 1 (not referenced by grid).
	Skipping thread 18 of domain 1 (not referenced by grid).
	Skipping thread 11 of domain 1 (not referenced by grid).
	interior--fluid_domain
	outlet_2
	outlet_1
	inlet
	wall-fluid_domain
	fluid_domain
     parallel,
Done.
Mesh is now scaled to meters.


> 
adjoint/                parallel/               server/
define/                 parametric-study/       solve/
display/                plot/                   surface/
exit                    preferences/            turbo-setup/
file/                   print-license-usage     views/
mesh/                   report/

> ; ---------- Models ----------
/define/models/solver/pressure-based yes

> /define/models/viscous/laminar yes

> 
adjoint/                parallel/               server/
define/                 parametric-study/       solve/
display/                plot/                   surface/
exit                    preferences/            turbo-setup/
file/                   print-license-usage     views/
mesh/                   report/

> ; ---------- Materials ----------
/define/materials/copy fluid water-liquid

Material "water-liquid" copied from database: fluent-database.


> /define/boundary-conditions/fluid (fluid_domain)
fluid_domain yes water-liquid
Specify source terms? [no] no
Specify fixed values? [no] no
Frame Motion? [no] no
Use Profile for Reference Frame X-Origin of Rotation-Axis? [no] no
Reference Frame X-Origin of Rotation-Axis (constant or expression) (in [m]) [0] 0
Use Profile for Reference Frame Y-Origin of Rotation-Axis? [no] no
Reference Frame Y-Origin of Rotation-Axis (constant or expression) (in [m]) [0] 0
Use Profile for Reference Frame Z-Origin of Rotation-Axis? [no] no
Reference Frame Z-Origin of Rotation-Axis (constant or expression) (in [m]) [0] 0
Use Profile for Reference Frame X-Component of Rotation-Axis? [no] no
Reference Frame X-Component of Rotation-Axis (constant or expression) [0] 0
Use Profile for Reference Frame Y-Component of Rotation-Axis? [no] no
Reference Frame Y-Component of Rotation-Axis (constant or expression) [0] 0
Use Profile for Reference Frame Z-Component of Rotation-Axis? [no] no
Reference Frame Z-Component of Rotation-Axis (constant or expression) [1] 1
Mesh Motion? [no] no
Enter yes or no to continue [no] no
Porous zone? [no] no
3D Fan Zone? [no] no

> 
adjoint/                parallel/               server/
define/                 parametric-study/       solve/
display/                plot/                   surface/
exit                    preferences/            turbo-setup/
file/                   print-license-usage     views/
mesh/                   report/

> ; ---------- Boundary Conditions ----------
; INLET
/define/boundary-conditions/velocity-inlet (inlet)
inlet
Velocity Specification Method: Magnitude and Direction [no] no
Velocity Specification Method: Components [no] no
Velocity Specification Method: Magnitude, Normal to Boundary [yes] yes
Reference Frame: Absolute [yes] yes
Use Profile for Velocity Magnitude? [no] no
Velocity Magnitude (constant or expression) (in [m/s]) [0] 0.03987771108275879
Use Profile for Supersonic/Initial Gauge Pressure? [no] no
Supersonic/Initial Gauge Pressure (constant or expression) (in [Pa]) [0] 0

> 
adjoint/                parallel/               server/
define/                 parametric-study/       solve/
display/                plot/                   surface/
exit                    preferences/            turbo-setup/
file/                   print-license-usage     views/
mesh/                   report/

> ; OUTLETS
/define/boundary-conditions/pressure-outlet (outlet_1 outlet_2)
outlet_1
Backflow Reference Frame: Absolute [yes] yes
Use Profile for Gauge Pressure? [no] no
Gauge Pressure (constant or expression) (in [Pa]) [0] 0
Backflow Direction Specification Method: Direction Vector [no] no
Backflow Direction Specification Method: Normal to Boundary [yes] yes
Backflow Pressure Specification: Total Pressure [yes] yes
Radial Equilibrium Pressure Distribution [no] no
Average Pressure Specification? [no] no
Specify targeted mass flow rate [no] no

> 
adjoint/                parallel/               server/
define/                 parametric-study/       solve/
display/                plot/                   surface/
exit                    preferences/            turbo-setup/
file/                   print-license-usage     views/
mesh/                   report/

> /define/boundary-conditions/pressure-outlet (outlet_1 outlet_2)
outlet_2
Backflow Reference Frame: Absolute [yes] yes
Use Profile for Gauge Pressure? [no] no
Gauge Pressure (constant or expression) (in [Pa]) [0] 0
Backflow Direction Specification Method: Direction Vector [no] no
Backflow Direction Specification Method: Normal to Boundary [yes] yes
Backflow Pressure Specification: Total Pressure [yes] yes
Radial Equilibrium Pressure Distribution [no] no
Average Pressure Specification? [no] no
Specify targeted mass flow rate [no] no

> 
adjoint/                parallel/               server/
define/                 parametric-study/       solve/
display/                plot/                   surface/
exit                    preferences/            turbo-setup/
file/                   print-license-usage     views/
mesh/                   report/

> ; WALLS
/define/boundary-conditions/wall (wall-fluid_domain)
wall-fluid_domain
Wall Motion [motion-bc-stationary]: Change current value? [no] no
Shear Boundary Condition [shear-bc-noslip]: Change current value? [no] no

> 
adjoint/                parallel/               server/
define/                 parametric-study/       solve/
display/                plot/                   surface/
exit                    preferences/            turbo-setup/
file/                   print-license-usage     views/
mesh/                   report/

> ; ---------- Solution Methods ----------
/solve/set/p-v-coupling 24

> /solve/set/discretization-scheme/pressure 12

> /solve/set/discretization-scheme/mom 4

> 
adjoint/                parallel/               server/
define/                 parametric-study/       solve/
display/                plot/                   surface/
exit                    preferences/            turbo-setup/
file/                   print-license-usage     views/
mesh/                   report/

> ; ---------- Solution Controls ----------
/solve/monitors/residual/convergence-criteria 1e-3 1e-4 1e-4 1e-4

> /solve/monitors/residual/print? yes

> 
adjoint/                parallel/               server/
define/                 parametric-study/       solve/
display/                plot/                   surface/
exit                    preferences/            turbo-setup/
file/                   print-license-usage     views/
mesh/                   report/

> ; ---------- Initialization ----------
/solve/initialize/compute-defaults/velocity-inlet (inlet)
inlet

> /solve/initialize/initialize-flow

> 
adjoint/                parallel/               server/
define/                 parametric-study/       solve/
display/                plot/                   surface/
exit                    preferences/            turbo-setup/
file/                   print-license-usage     views/
mesh/                   report/

> ; ---------- Solve ----------
/solve/iterate 1500

  iter  continuity  x-velocity  y-velocity  z-velocity     time/iter

 Reversed flow on 709 faces (100.0% area) of pressure-outlet 21.
     1  1.0000e+00  1.0196e-02  1.3053e-02  3.2266e-03  0:55:42 1499

 Reversed flow on 242 faces (16.2% area) of pressure-outlet 21.
     2  7.2890e-01  1.3410e-02  1.7641e-02  5.4984e-03  0:52:49 1498

 Reversed flow on 274 faces (17.5% area) of pressure-outlet 21.
     3  3.5273e-01  4.9307e-03  5.8811e-03  3.1625e-03  0:50:49 1497

 Reversed flow on 217 faces (12.7% area) of pressure-outlet 21.
     4  2.3738e-01  2.3290e-03  2.5859e-03  1.9785e-03  0:47:07 1496

 Reversed flow on 157 faces (8.3% area) of pressure-outlet 21.
     5  1.7113e-01  1.3307e-03  1.3604e-03  1.3627e-03  0:45:50 1495

 Reversed flow on 101 faces (4.5% area) of pressure-outlet 21.
     6  1.3612e-01  8.3761e-04  8.0069e-04  9.8299e-04  0:43:03 1494

 Reversed flow on 75 faces (3.4% area) of pressure-outlet 21.
     7  1.0877e-01  5.8655e-04  5.3613e-04  7.4473e-04  0:40:48 1493

 Reversed flow on 54 faces (2.4% area) of pressure-outlet 21.
     8  8.7488e-02  4.4061e-04  3.9332e-04  5.8743e-04  0:40:41 1492

 Reversed flow on 34 faces (1.3% area) of pressure-outlet 21.
     9  7.2351e-02  3.5333e-04  3.1509e-04  4.8255e-04  0:38:54 1491

 Reversed flow on 28 faces (1.1% area) of pressure-outlet 21.
    10  5.8447e-02  2.8613e-04  2.5561e-04  3.9542e-04  0:39:08 1490

 Reversed flow on 17 faces (0.6% area) of pressure-outlet 21.
    11  4.8732e-02  2.4290e-04  2.1885e-04  3.3458e-04  0:39:24 1489

 Reversed flow on 9 faces (0.3% area) of pressure-outlet 21.

  iter  continuity  x-velocity  y-velocity  z-velocity     time/iter
    12  4.1024e-02  2.0849e-04  1.8829e-04  2.8289e-04  0:39:35 1488

 Reversed flow on 6 faces (0.1% area) of pressure-outlet 21.
    13  3.4918e-02  1.8024e-04  1.6241e-04  2.4028e-04  0:39:41 1487

 Reversed flow on 6 faces (0.1% area) of pressure-outlet 21.
    14  3.0389e-02  1.6017e-04  1.4464e-04  2.0791e-04  0:39:45 1486

 Reversed flow on 6 faces (0.1% area) of pressure-outlet 21.
    15  2.6644e-02  1.4200e-04  1.2797e-04  1.7915e-04  0:39:56 1485

 Reversed flow on 6 faces (0.1% area) of pressure-outlet 21.
    16  2.3635e-02  1.2721e-04  1.1465e-04  1.5641e-04  0:39:55 1484

 Reversed flow on 4 faces (0.1% area) of pressure-outlet 21.
    17  2.1013e-02  1.1374e-04  1.0242e-04  1.3670e-04  0:39:55 1483

 Reversed flow on 4 faces (0.1% area) of pressure-outlet 21.
    18  1.8614e-02  1.0119e-04  9.1245e-05  1.1943e-04  0:39:55 1482

 Reversed flow on 3 faces (0.1% area) of pressure-outlet 21.
    19  1.6401e-02  8.9763e-05  8.1081e-05  1.0431e-04  0:40:00 1481

 Reversed flow on 1 face (0.0% area) of pressure-outlet 21.
    20  1.4391e-02  7.9346e-05  7.1684e-05  9.1206e-05  0:38:16 1480
    21  1.2251e-02  6.8149e-05  6.1449e-05  7.8110e-05  0:36:54 1479
    22  1.0511e-02  5.9001e-05  5.3236e-05  6.7799e-05  0:35:48 1478

  iter  continuity  x-velocity  y-velocity  z-velocity     time/iter
    23  9.1094e-03  5.1515e-05  4.6451e-05  5.9376e-05  0:36:36 1477
    24  8.1623e-03  4.6154e-05  4.1690e-05  5.3265e-05  0:35:36 1476
    25  7.0761e-03  3.9972e-05  3.5897e-05  4.6282e-05  0:34:46 1475
    26  6.1660e-03  3.4861e-05  3.1211e-05  4.0648e-05  0:34:06 1474
    27  5.4112e-03  3.0587e-05  2.7226e-05  3.5860e-05  0:33:33 1473
    28  4.7761e-03  2.6918e-05  2.3821e-05  3.1751e-05  0:33:06 1472
    29  4.2376e-03  2.3771e-05  2.0904e-05  2.8219e-05  0:34:24 1471
    30  3.9003e-03  2.1596e-05  1.8928e-05  2.5884e-05  0:33:49 1470
    31  3.4527e-03  1.8868e-05  1.6358e-05  2.2740e-05  0:33:21 1469
    32  3.0623e-03  1.6615e-05  1.4338e-05  2.0226e-05  0:32:56 1468
    33  2.7257e-03  1.4672e-05  1.2581e-05  1.8049e-05  0:32:38 1467

  iter  continuity  x-velocity  y-velocity  z-velocity     time/iter
    34  2.4295e-03  1.2979e-05  1.1063e-05  1.6137e-05  0:32:23 1466
    35  2.1697e-03  1.1488e-05  9.7482e-06  1.4449e-05  0:32:10 1465
    36  1.9382e-03  1.0173e-05  8.5945e-06  1.2946e-05  0:31:59 1464
    37  1.7309e-03  9.0109e-06  7.5813e-06  1.1590e-05  0:31:50 1463
    38  1.5459e-03  7.9905e-06  6.6901e-06  1.0375e-05  0:31:42 1462
    39  1.3819e-03  7.0922e-06  5.9029e-06  9.2820e-06  0:31:35 1461
    40  1.2352e-03  6.2986e-06  5.2167e-06  8.2974e-06  0:31:29 1460
    41  1.1033e-03  5.5963e-06  4.6127e-06  7.4138e-06  0:31:43 1459
    42  9.8595e-04  4.9752e-06  4.0820e-06  6.6226e-06  0:31:36 1458
!   42 solution is converged

> 
adjoint/                parallel/               server/
define/                 parametric-study/       solve/
display/                plot/                   surface/
exit                    preferences/            turbo-setup/
file/                   print-license-usage     views/
mesh/                   report/

> ; ===========================================================
; DATA EXPORT (batch mode auto-overwrites)
; ===========================================================

adjoint/                parallel/               server/
define/                 parametric-study/       solve/
display/                plot/                   surface/
exit                    preferences/            turbo-setup/
file/                   print-license-usage     views/
mesh/                   report/

> ; Create surface from interior zone for export
/surface/zone-surface interior-data fluid_domain

> 
adjoint/                parallel/               server/
define/                 parametric-study/       solve/
display/                plot/                   surface/
exit                    preferences/            turbo-setup/
file/                   print-license-usage     views/
mesh/                   report/

> ; Save case and data
/file/write-case-data "results/coronary_extracted_vessel/Re700/bifurcation_Re700.cas.h5"
Writing to DESKTOP-BBN4MI6:"C:\Users\radie\Desktop\realbifurcationSIM\results/coronary_extracted_vessel/Re700/bifurcation_Re700.cas.h5" in NODE0 mode and compression level 1 ...
Grouping cells for Laplace smoothing ...
  Done.      567668 cells,     1 zone  ...
     1279652 faces,     5 zones ...
      211243 nodes,     1 zone  ...
  Done.

  Writing boundary layer flags ...
  Done.
Done.

Writing to DESKTOP-BBN4MI6:"C:\Users\radie\Desktop\realbifurcationSIM\results/coronary_extracted_vessel/Re700/bifurcation_Re700.dat.h5" in NODE0 mode and compression level 1 ...
  Writing results.
Done.


> yes


Overwrite confirmations (/file/set-batch-options ...)
are on -- will therefore ignore the following journal
Error: invalid command: yes


> 
adjoint/                parallel/               server/
define/                 parametric-study/       solve/
display/                plot/                   surface/
exit                    preferences/            turbo-setup/
file/                   print-license-usage     views/
mesh/                   report/

> ; Export interior field data
/file/export/ascii "results/coronary_extracted_vessel/Re700/interior_full_Re700.csv" interior-data () no x-coordinate y-coordinate z-coordinate pressure x-velocity y-velocity z-velocity velocity-magnitude ()

Location/Cell-Centered?,
if Cell-Centered not chosen, node values of scalars are reported [no] no

Writing "results/coronary_extracted_vessel/Re700/interior_full_Re700.csv"...

Writing information to ascii file ...
Done.


> yes


Overwrite confirmations (/file/set-batch-options ...)
are on -- will therefore ignore the following journal
Error: invalid command: yes


> 
adjoint/                parallel/               server/
define/                 parametric-study/       solve/
display/                plot/                   surface/
exit                    preferences/            turbo-setup/
file/                   print-license-usage     views/
mesh/                   report/

> ; Export wall data
/file/export/ascii "results/coronary_extracted_vessel/Re700/wall_data_Re700.csv" wall-fluid_domain () no x-coordinate y-coordinate z-coordinate pressure wall-shear x-wall-shear y-wall-shear z-wall-shear ()

Location/Cell-Centered?,
if Cell-Centered not chosen, node values of scalars are reported [no] no

Writing "results/coronary_extracted_vessel/Re700/wall_data_Re700.csv"...

Writing information to ascii file ...
Done.


> yes


Overwrite confirmations (/file/set-batch-options ...)
are on -- will therefore ignore the following journal
Error: invalid command: yes


> 
adjoint/                parallel/               server/
define/                 parametric-study/       solve/
display/                plot/                   surface/
exit                    preferences/            turbo-setup/
file/                   print-license-usage     views/
mesh/                   report/

> ; Export outlet data
/file/export/ascii "results/coronary_extracted_vessel/Re700/outlets_Re700.csv" outlet_1 outlet_2 () no x-coordinate y-coordinate z-coordinate pressure velocity-magnitude ()

Location/Cell-Centered?,
if Cell-Centered not chosen, node values of scalars are reported [no] no

Writing "results/coronary_extracted_vessel/Re700/outlets_Re700.csv"...

Writing information to ascii file ...
Done.


> yes


Overwrite confirmations (/file/set-batch-options ...)
are on -- will therefore ignore the following journal
Error: invalid command: yes


> 
adjoint/                parallel/               server/
define/                 parametric-study/       solve/
display/                plot/                   surface/
exit                    preferences/            turbo-setup/
file/                   print-license-usage     views/
mesh/                   report/

> /exit yes

Posting ANSYS Product Improvement Program performance data 
Done.
Auto-Transcript Stop Time:  14:49:26, 02 Feb 2026 E. Australia Standard Time 
Total Transcript Time: 1 Minute 42 Second.

Automatic transcript closed.
