
Opening input/output transcript to file "C:\Users\radie\Desktop\realbifurcationSIM\\fluent-20260202-142601-2276.trn".
Auto-Transcript Start Time:  14:26:01, 02 Feb 2026 E. Australia Standard Time 

              Welcome to ANSYS Fluent 2025 R2.04

              Copyright 1987-2025 ANSYS, Inc. All Rights Reserved.
              Unauthorized use, distribution or duplication is prohibited.
              This product is subject to U.S. laws governing export and re-export.
              For full Legal Notice, see documentation.

Build Time: Oct  7 2025 15:34:38 EDT  Build Id: 10205  
 
Connected License Server List:	1055@localhost

     --------------------------------------------------------------
     This is an academic version of ANSYS FLUENT. Usage of this product
     license is limited to the terms and conditions specified in your ANSYS
     license form, additional terms section.
     --------------------------------------------------------------
Host spawning Node 0 on machine "DESKTOP-BBN4MI6" (win64).

-----------------------------------------------------------------------------------
ID    Hostname         Core  O.S.         PID    Vendor                           
-----------------------------------------------------------------------------------
n3    DESKTOP-BBN4MI6  4/12  Windows-x64  18872  Intel(R) Core(TM) i5-10400F      
n2    DESKTOP-BBN4MI6  3/12  Windows-x64  15812  Intel(R) Core(TM) i5-10400F      
n1    DESKTOP-BBN4MI6  2/12  Windows-x64  8396   Intel(R) Core(TM) i5-10400F      
n0*   DESKTOP-BBN4MI6  1/12  Windows-x64  12044  Intel(R) Core(TM) i5-10400F      
host  DESKTOP-BBN4MI6        Windows-x64  20208  Intel(R) Core(TM) i5-10400F      

MPI Option Selected: intel
Selected system interconnect: default
-----------------------------------------------------------------------------------

Cleanup script file is C:\\Users\\radie\\Desktop\\realbifurcationSIM\\cleanup-fluent-DESKTOP-BBN4MI6-20208.bat

Posting ANSYS Product Improvement Program startup data
Done.

Reading journal file run_coronary_extracted_vessel_Re125.jou...

> ; ===========================================================
; 3D BIFURCATION TEMPLATE (GOLDEN MASTER)
; Validated for ANSYS Fluent 2025 R2 (25.2)
; ===========================================================
/file/set-tui-version "25.2"

> /file/read-case "coronary_extracted_vessel.msh.h5"Fast-loading "C:\PROGRA~1\ANSYSI~1\v252\fluent\fluent25.2.0\\addons\afd\lib\hdfio.bin"
Done.
Multicore SMT processors detected. Processor affinity set!

Reading from DESKTOP-BBN4MI6:"C:\Users\radie\Desktop\realbifurcationSIM\coronary_extracted_vessel.msh.h5" in NODE0 mode ...
  Reading mesh ...
      567668 cells,     1 cell zone  ...
         567668 mixed cells,  zone id: 3115
     1279652 faces,     5 face zones ...
        1220320 mixed interior faces,  zone id: 3117
            267 mixed pressure-outlet faces,  zone id: 22
            709 mixed pressure-outlet faces,  zone id: 21
           1031 mixed velocity-inlet faces,  zone id: 20
          57325 triangular wall faces,  zone id: 19
      211243 nodes,     3 node zones ...

Building...
     mesh
	auto partitioning mesh by Metis (fast),
	distributing mesh
		parts....,
		faces....,
		nodes....,
		cells....,
        bandwidth reduction using Reverse Cuthill-McKee: 141249/1081 = 130.665
  Reading boundary layer flags ...
  Done.

     materials,
     interface,
     domains,
     zones,
	Skipping thread 14 of domain 1 (not referenced by grid).
	Skipping thread 15 of domain 1 (not referenced by grid).
	Skipping thread 16 of domain 1 (not referenced by grid).
	Skipping thread 17 of domain 1 (not referenced by grid).
	Skipping thread 18 of domain 1 (not referenced by grid).
	Skipping thread 11 of domain 1 (not referenced by grid).
	interior--fluid_domain
	outlet_2
	outlet_1
	inlet
	wall-fluid_domain
	fluid_domain
     parallel,
Done.
Mesh is now scaled to meters.


> 
adjoint/                parallel/               server/
define/                 parametric-study/       solve/
display/                plot/                   surface/
exit                    preferences/            turbo-setup/
file/                   print-license-usage     views/
mesh/                   report/

> ; ---------- Models ----------
/define/models/solver/pressure-based yes

> /define/models/viscous/laminar yes

> 
adjoint/                parallel/               server/
define/                 parametric-study/       solve/
display/                plot/                   surface/
exit                    preferences/            turbo-setup/
file/                   print-license-usage     views/
mesh/                   report/

> ; ---------- Materials ----------
/define/materials/copy fluid water-liquid

Material "water-liquid" copied from database: fluent-database.


> /define/boundary-conditions/fluid (fluid_domain)
fluid_domain yes water-liquid
Specify source terms? [no] no
Specify fixed values? [no] no
Frame Motion? [no] no
Use Profile for Reference Frame X-Origin of Rotation-Axis? [no] no
Reference Frame X-Origin of Rotation-Axis (constant or expression) (in [m]) [0] 0
Use Profile for Reference Frame Y-Origin of Rotation-Axis? [no] no
Reference Frame Y-Origin of Rotation-Axis (constant or expression) (in [m]) [0] 0
Use Profile for Reference Frame Z-Origin of Rotation-Axis? [no] no
Reference Frame Z-Origin of Rotation-Axis (constant or expression) (in [m]) [0] 0
Use Profile for Reference Frame X-Component of Rotation-Axis? [no] no
Reference Frame X-Component of Rotation-Axis (constant or expression) [0] 0
Use Profile for Reference Frame Y-Component of Rotation-Axis? [no] no
Reference Frame Y-Component of Rotation-Axis (constant or expression) [0] 0
Use Profile for Reference Frame Z-Component of Rotation-Axis? [no] no
Reference Frame Z-Component of Rotation-Axis (constant or expression) [1] 1
Mesh Motion? [no] no
Enter yes or no to continue [no] no
Porous zone? [no] no
3D Fan Zone? [no] no

> 
adjoint/                parallel/               server/
define/                 parametric-study/       solve/
display/                plot/                   surface/
exit                    preferences/            turbo-setup/
file/                   print-license-usage     views/
mesh/                   report/

> ; ---------- Boundary Conditions ----------
; INLET
/define/boundary-conditions/velocity-inlet (inlet)
inlet
Velocity Specification Method: Magnitude and Direction [no] no
Velocity Specification Method: Components [no] no
Velocity Specification Method: Magnitude, Normal to Boundary [yes] yes
Reference Frame: Absolute [yes] yes
Use Profile for Velocity Magnitude? [no] no
Velocity Magnitude (constant or expression) (in [m/s]) [0] 0.007121019836206928
Use Profile for Supersonic/Initial Gauge Pressure? [no] no
Supersonic/Initial Gauge Pressure (constant or expression) (in [Pa]) [0] 0

> 
adjoint/                parallel/               server/
define/                 parametric-study/       solve/
display/                plot/                   surface/
exit                    preferences/            turbo-setup/
file/                   print-license-usage     views/
mesh/                   report/

> ; OUTLETS
/define/boundary-conditions/pressure-outlet (outlet_1 outlet_2)
outlet_1
Backflow Reference Frame: Absolute [yes] yes
Use Profile for Gauge Pressure? [no] no
Gauge Pressure (constant or expression) (in [Pa]) [0] 0
Backflow Direction Specification Method: Direction Vector [no] no
Backflow Direction Specification Method: Normal to Boundary [yes] yes
Backflow Pressure Specification: Total Pressure [yes] yes
Radial Equilibrium Pressure Distribution [no] no
Average Pressure Specification? [no] no
Specify targeted mass flow rate [no] no

> 
adjoint/                parallel/               server/
define/                 parametric-study/       solve/
display/                plot/                   surface/
exit                    preferences/            turbo-setup/
file/                   print-license-usage     views/
mesh/                   report/

> /define/boundary-conditions/pressure-outlet (outlet_1 outlet_2)
outlet_2
Backflow Reference Frame: Absolute [yes] yes
Use Profile for Gauge Pressure? [no] no
Gauge Pressure (constant or expression) (in [Pa]) [0] 0
Backflow Direction Specification Method: Direction Vector [no] no
Backflow Direction Specification Method: Normal to Boundary [yes] yes
Backflow Pressure Specification: Total Pressure [yes] yes
Radial Equilibrium Pressure Distribution [no] no
Average Pressure Specification? [no] no
Specify targeted mass flow rate [no] no

> 
adjoint/                parallel/               server/
define/                 parametric-study/       solve/
display/                plot/                   surface/
exit                    preferences/            turbo-setup/
file/                   print-license-usage     views/
mesh/                   report/

> ; WALLS
/define/boundary-conditions/wall (wall-fluid_domain)
wall-fluid_domain
Wall Motion [motion-bc-stationary]: Change current value? [no] no
Shear Boundary Condition [shear-bc-noslip]: Change current value? [no] no

> 
adjoint/                parallel/               server/
define/                 parametric-study/       solve/
display/                plot/                   surface/
exit                    preferences/            turbo-setup/
file/                   print-license-usage     views/
mesh/                   report/

> ; ---------- Solution Methods ----------
/solve/set/p-v-coupling 24

> /solve/set/discretization-scheme/pressure 12

> /solve/set/discretization-scheme/mom 4

> 
adjoint/                parallel/               server/
define/                 parametric-study/       solve/
display/                plot/                   surface/
exit                    preferences/            turbo-setup/
file/                   print-license-usage     views/
mesh/                   report/

> ; ---------- Solution Controls ----------
/solve/monitors/residual/convergence-criteria 1e-3 1e-4 1e-4 1e-4

> /solve/monitors/residual/print? yes

> 
adjoint/                parallel/               server/
define/                 parametric-study/       solve/
display/                plot/                   surface/
exit                    preferences/            turbo-setup/
file/                   print-license-usage     views/
mesh/                   report/

> ; ---------- Initialization ----------
/solve/initialize/compute-defaults/velocity-inlet (inlet)
inlet

> /solve/initialize/initialize-flow

> 
adjoint/                parallel/               server/
define/                 parametric-study/       solve/
display/                plot/                   surface/
exit                    preferences/            turbo-setup/
file/                   print-license-usage     views/
mesh/                   report/

> ; ---------- Solve ----------
/solve/iterate 1000

  iter  continuity  x-velocity  y-velocity  z-velocity     time/iter

 Reversed flow on 709 faces (100.0% area) of pressure-outlet 21.
     1  1.0000e+00  1.5416e-02  1.9736e-02  4.8785e-03  0:44:20  999

 Reversed flow on 156 faces (7.6% area) of pressure-outlet 21.
     2  7.1455e-01  1.3818e-02  1.7922e-02  5.1275e-03  0:41:23  998

 Reversed flow on 403 faces (25.3% area) of pressure-outlet 21.
     3  3.7419e-01  6.1034e-03  7.3004e-03  3.2148e-03  0:37:43  997

 Reversed flow on 384 faces (23.8% area) of pressure-outlet 21.
     4  2.3788e-01  3.1295e-03  3.5583e-03  2.0319e-03  0:34:31  996

 Reversed flow on 282 faces (15.9% area) of pressure-outlet 21.
     5  1.7110e-01  1.6136e-03  1.7539e-03  1.2741e-03  0:33:08  995

 Reversed flow on 209 faces (11.0% area) of pressure-outlet 21.
     6  1.3424e-01  8.8586e-04  9.3364e-04  8.2202e-04  0:30:51  994

 Reversed flow on 179 faces (9.0% area) of pressure-outlet 21.
     7  1.0335e-01  5.2586e-04  5.3554e-04  5.5235e-04  0:28:59  993

 Reversed flow on 131 faces (6.6% area) of pressure-outlet 21.
     8  7.9030e-02  3.3269e-04  3.2953e-04  3.8175e-04  0:28:42  992

 Reversed flow on 94 faces (4.7% area) of pressure-outlet 21.
     9  6.0113e-02  2.2059e-04  2.1582e-04  2.6621e-04  0:28:30  991

 Reversed flow on 69 faces (3.3% area) of pressure-outlet 21.
    10  4.5197e-02  1.5197e-04  1.4689e-04  1.8793e-04  0:28:18  990

 Reversed flow on 59 faces (2.8% area) of pressure-outlet 21.
    11  3.3346e-02  1.0592e-04  1.0231e-04  1.3220e-04  0:35:53  989

 Reversed flow on 42 faces (1.9% area) of pressure-outlet 21.

  iter  continuity  x-velocity  y-velocity  z-velocity     time/iter
    12  2.4119e-02  7.6041e-05  7.3932e-05  9.8716e-05  0:33:02  988

 Reversed flow on 28 faces (1.2% area) of pressure-outlet 21.
    13  1.7302e-02  5.1516e-05  4.8731e-05  6.6450e-05  0:31:55  987

 Reversed flow on 21 faces (0.9% area) of pressure-outlet 21.
    14  1.2606e-02  3.7521e-05  3.5141e-05  4.8166e-05  0:32:10  986

 Reversed flow on 18 faces (0.7% area) of pressure-outlet 21.
    15  9.3210e-03  2.8138e-05  2.6209e-05  3.6335e-05  0:33:32  985

 Reversed flow on 12 faces (0.5% area) of pressure-outlet 21.
    16  7.0177e-03  2.2028e-05  2.0532e-05  2.8952e-05  0:32:13  984

 Reversed flow on 7 faces (0.2% area) of pressure-outlet 21.
    17  5.1482e-03  1.6229e-05  1.5027e-05  2.1167e-05  0:31:14  983

 Reversed flow on 6 faces (0.1% area) of pressure-outlet 21.
    18  3.8165e-03  1.2487e-05  1.1548e-05  1.5824e-05  0:30:26  982

 Reversed flow on 6 faces (0.1% area) of pressure-outlet 21.
    19  2.8756e-03  9.7106e-06  8.9685e-06  1.2045e-05  0:29:45  981

 Reversed flow on 4 faces (0.1% area) of pressure-outlet 21.
    20  2.1899e-03  7.4803e-06  6.9017e-06  9.1306e-06  0:28:04  980

 Reversed flow on 4 faces (0.1% area) of pressure-outlet 21.
    21  1.6448e-03  5.7114e-06  5.3087e-06  6.7633e-06  0:26:45  979

 Reversed flow on 4 faces (0.1% area) of pressure-outlet 21.
    22  1.2302e-03  4.4195e-06  4.1658e-06  5.0490e-06  0:26:48  978

 Reversed flow on 8 faces (0.4% area) of pressure-outlet 21.

  iter  continuity  x-velocity  y-velocity  z-velocity     time/iter
    23  9.4741e-04  3.7529e-06  3.4992e-06  3.9793e-06  0:26:53  977
!   23 solution is converged

> 
adjoint/                parallel/               server/
define/                 parametric-study/       solve/
display/                plot/                   surface/
exit                    preferences/            turbo-setup/
file/                   print-license-usage     views/
mesh/                   report/

> ; ===========================================================
; DATA EXPORT (batch mode auto-overwrites)
; ===========================================================

adjoint/                parallel/               server/
define/                 parametric-study/       solve/
display/                plot/                   surface/
exit                    preferences/            turbo-setup/
file/                   print-license-usage     views/
mesh/                   report/

> ; Create surface from interior zone for export
/surface/zone-surface interior-data fluid_domain

> 
adjoint/                parallel/               server/
define/                 parametric-study/       solve/
display/                plot/                   surface/
exit                    preferences/            turbo-setup/
file/                   print-license-usage     views/
mesh/                   report/

> ; Save case and data
/file/write-case-data "results/coronary_extracted_vessel/Re125/bifurcation_Re125.cas.h5"
Writing to DESKTOP-BBN4MI6:"C:\Users\radie\Desktop\realbifurcationSIM\results/coronary_extracted_vessel/Re125/bifurcation_Re125.cas.h5" in NODE0 mode and compression level 1 ...
Grouping cells for Laplace smoothing ...
  Done.      567668 cells,     1 zone  ...
     1279652 faces,     5 zones ...
      211243 nodes,     1 zone  ...
  Done.

  Writing boundary layer flags ...
  Done.
Done.

Writing to DESKTOP-BBN4MI6:"C:\Users\radie\Desktop\realbifurcationSIM\results/coronary_extracted_vessel/Re125/bifurcation_Re125.dat.h5" in NODE0 mode and compression level 1 ...
  Writing results.
Done.


> yes


Overwrite confirmations (/file/set-batch-options ...)
are on -- will therefore ignore the following journal
Error: invalid command: yes


> 
adjoint/                parallel/               server/
define/                 parametric-study/       solve/
display/                plot/                   surface/
exit                    preferences/            turbo-setup/
file/                   print-license-usage     views/
mesh/                   report/

> ; Export interior field data
/file/export/ascii "results/coronary_extracted_vessel/Re125/interior_full_Re125.csv" interior-data () no x-coordinate y-coordinate z-coordinate pressure x-velocity y-velocity z-velocity velocity-magnitude ()

Location/Cell-Centered?,
if Cell-Centered not chosen, node values of scalars are reported [no] no

Writing "results/coronary_extracted_vessel/Re125/interior_full_Re125.csv"...

Writing information to ascii file ...
Done.


> yes


Overwrite confirmations (/file/set-batch-options ...)
are on -- will therefore ignore the following journal
Error: invalid command: yes


> 
adjoint/                parallel/               server/
define/                 parametric-study/       solve/
display/                plot/                   surface/
exit                    preferences/            turbo-setup/
file/                   print-license-usage     views/
mesh/                   report/

> ; Export wall data
/file/export/ascii "results/coronary_extracted_vessel/Re125/wall_data_Re125.csv" wall-fluid_domain () no x-coordinate y-coordinate z-coordinate pressure wall-shear x-wall-shear y-wall-shear z-wall-shear ()

Location/Cell-Centered?,
if Cell-Centered not chosen, node values of scalars are reported [no] no

Writing "results/coronary_extracted_vessel/Re125/wall_data_Re125.csv"...

Writing information to ascii file ...
Done.


> yes


Overwrite confirmations (/file/set-batch-options ...)
are on -- will therefore ignore the following journal
Error: invalid command: yes


> 
adjoint/                parallel/               server/
define/                 parametric-study/       solve/
display/                plot/                   surface/
exit                    preferences/            turbo-setup/
file/                   print-license-usage     views/
mesh/                   report/

> ; Export outlet data
/file/export/ascii "results/coronary_extracted_vessel/Re125/outlets_Re125.csv" outlet_1 outlet_2 () no x-coordinate y-coordinate z-coordinate pressure velocity-magnitude ()

Location/Cell-Centered?,
if Cell-Centered not chosen, node values of scalars are reported [no] no

Writing "results/coronary_extracted_vessel/Re125/outlets_Re125.csv"...

Writing information to ascii file ...
Done.


> yes


Overwrite confirmations (/file/set-batch-options ...)
are on -- will therefore ignore the following journal
Error: invalid command: yes


> 
adjoint/                parallel/               server/
define/                 parametric-study/       solve/
display/                plot/                   surface/
exit                    preferences/            turbo-setup/
file/                   print-license-usage     views/
mesh/                   report/

> /exit yes

Posting ANSYS Product Improvement Program performance data 
Done.
Auto-Transcript Stop Time:  14:27:25, 02 Feb 2026 E. Australia Standard Time 
Total Transcript Time: 1 Minute 23 Second.

Automatic transcript closed.
